
This summary information was generated by ElastoDyn (v1.04.00a-bjj, 26-Jul-2016) on 01-Nov-2021 at 15:28:18.


Turbine features:

            Upwind, three-bladed rotor with rigid hub.
            The model has 13 of 24 DOFs active (enabled) at start-up.
 Disabled   Platform horizontal surge translation DOF 
 Disabled   Platform horizontal sway translation DOF 
 Disabled   Platform vertical heave translation DOF 
 Disabled   Platform roll tilt rotation DOF 
 Disabled   Platform pitch tilt rotation DOF 
 Disabled   Platform yaw rotation DOF 
 Enabled    1st tower fore-aft bending mode DOF 
 Enabled    1st tower side-to-side bending mode DOF 
 Disabled   2nd tower fore-aft bending mode DOF 
 Disabled   2nd tower side-to-side bending mode DOF 
 Disabled   Nacelle yaw DOF 
 Disabled   Rotor-furl DOF 
 Enabled    Variable speed generator DOF 
 Enabled    Drivetrain rotational-flexibility DOF 
 Disabled   Tail-furl DOF 
 Enabled    1st flapwise bending-mode DOF of blade 1 
 Enabled    1st edgewise bending-mode DOF of blade 1 
 Enabled    2nd flapwise bending-mode DOF of blade 1 
 Enabled    1st flapwise bending-mode DOF of blade 2 
 Enabled    1st edgewise bending-mode DOF of blade 2 
 Enabled    2nd flapwise bending-mode DOF of blade 2 
 Enabled    1st flapwise bending-mode DOF of blade 3 
 Enabled    1st edgewise bending-mode DOF of blade 3 
 Enabled    2nd flapwise bending-mode DOF of blade 3 


Time steps:

    Structural            (s)        0.00250000


Some calculated parameters:

    Hub-Height            (m)            36.842
    Flexible Tower Length (m)            34.861
    Flexible Blade Length (m)            19.184


Rotor mass properties:

    Rotor Mass            (kg)        15785.174
    Rotor Inertia         (kg-m^2)   611060.875
                                        Blade 1      Blade 2      Blade 3
                                        -------      -------      -------
    Mass                  (kg)         3077.725     3077.725     3077.725
    Second Mass Moment    (kg-m^2)   175539.688   175539.688   175539.688
    First Mass Moment     (kg-m)      15194.873    15194.873    15194.873
    Center of Mass        (m)             4.937        4.937        4.937


Additional mass properties:

    Tower-top Mass        (kg)        39669.273
    Tower Mass            (kg)        37909.359
    Platform Mass         (kg)            0.000
    Mass Incl. Platform   (kg)        77578.633


Interpolated tower properties:

Node  TwFract   HNodes  DHNodes  TMassDen    FAStiff    SSStiff
 (-)      (-)      (m)      (m)    (kg/m)     (Nm^2)     (Nm^2)
   1    0.025    0.872    1.743  1476.951  7.273E+10  7.273E+10
   2    0.075    2.615    1.743  1365.698  5.405E+10  5.405E+10
   3    0.125    4.358    1.743  1391.232  4.456E+10  4.456E+10
   4    0.175    6.101    1.743  1416.765  3.508E+10  3.508E+10
   5    0.225    7.844    1.743  1377.832  2.537E+10  2.537E+10
   6    0.275    9.587    1.743  1311.000  1.800E+10  1.800E+10
   7    0.325   11.330    1.743  1311.000  1.800E+10  1.800E+10
   8    0.375   13.073    1.743  1311.000  1.800E+10  1.800E+10
   9    0.425   14.816    1.743  1311.000  1.800E+10  1.800E+10
  10    0.475   16.559    1.743  1077.965  1.461E+10  1.461E+10
  11    0.525   18.302    1.743   878.000  1.170E+10  1.170E+10
  12    0.575   20.045    1.743   878.000  1.170E+10  1.170E+10
  13    0.625   21.788    1.743   878.000  1.170E+10  1.170E+10
  14    0.675   23.532    1.743   878.000  1.170E+10  1.170E+10
  15    0.725   25.275    1.743   788.346  1.040E+10  1.040E+10
  16    0.775   27.018    1.743   621.079  7.971E+09  7.971E+09
  17    0.825   28.761    1.743   599.000  7.650E+09  7.650E+09
  18    0.875   30.504    1.743   599.000  7.650E+09  7.650E+09
  19    0.925   32.247    1.743   967.683  4.621E+09  4.621E+09
  20    0.975   33.990    1.743  1311.000  1.800E+09  1.800E+09


Interpolated blade 1 properties:

Node  BlFract   RNodes  DRNodes PitchAxis  StrcTwst  BMassDen    FlpStff    EdgStff
 (-)      (-)      (m)      (m)       (-)     (deg)    (kg/m)     (Nm^2)     (Nm^2)
   1    0.002    0.854    0.076     0.500    19.190  3402.177  3.710E+08  5.141E+08
   2    0.010    1.002    0.220     0.500    19.190  2861.621  3.710E+08  5.141E+08
   3    0.021    1.222    0.220     0.500    19.190  1780.509  3.710E+08  5.141E+08
   4    0.039    1.555    0.445     0.500    19.190   149.987  3.710E+08  5.141E+08
   5    0.075    2.257    0.959     0.500    18.666   142.821  2.092E+08  3.461E+08
   6    0.150    3.695    1.918     0.500    16.061   142.821  2.092E+08  3.461E+08
   7    0.250    5.613    1.918     0.500    12.589   142.615  2.083E+08  3.452E+08
   8    0.350    7.531    1.918     0.500     8.468    95.310  3.386E+07  1.518E+08
   9    0.450    9.449    1.918     0.500     5.348    85.530  2.349E+07  1.254E+08
  10    0.550   11.367    1.918     0.500     3.130    85.530  2.349E+07  1.254E+08
  11    0.650   13.285    1.918     0.500     1.689    75.110  1.519E+07  9.821E+07
  12    0.750   15.203    1.918     0.500     0.547    62.690  8.632E+06  6.831E+07
  13    0.825   16.642    0.959     0.500    -0.164    48.290  3.868E+06  3.634E+07
  14    0.875   17.601    0.959     0.500    -0.571    99.600  3.868E+06  3.634E+07
  15    0.910   18.272    0.384     0.500    -0.859    99.600  3.868E+06  3.634E+07
  16    0.930   18.656    0.384     0.500    -0.970    84.213  1.129E+06  1.622E+07
  17    0.950   19.040    0.384     0.500    -1.056    50.368  1.129E+06  1.622E+07
  18    0.970   19.424    0.384     0.500    -1.210    50.368  1.129E+06  1.622E+07
  19    0.985   19.712    0.192     0.500    -1.325    50.368  1.129E+06  1.622E+07
  20    0.995   19.904    0.192     0.500    -1.402    50.368  1.129E+06  1.622E+07


Interpolated blade 2 properties:

Node  BlFract   RNodes  DRNodes PitchAxis  StrcTwst  BMassDen    FlpStff    EdgStff
 (-)      (-)      (m)      (m)       (-)     (deg)    (kg/m)     (Nm^2)     (Nm^2)
   1    0.002    0.854    0.076     0.500    19.190  3402.177  3.710E+08  5.141E+08
   2    0.010    1.002    0.220     0.500    19.190  2861.621  3.710E+08  5.141E+08
   3    0.021    1.222    0.220     0.500    19.190  1780.509  3.710E+08  5.141E+08
   4    0.039    1.555    0.445     0.500    19.190   149.987  3.710E+08  5.141E+08
   5    0.075    2.257    0.959     0.500    18.666   142.821  2.092E+08  3.461E+08
   6    0.150    3.695    1.918     0.500    16.061   142.821  2.092E+08  3.461E+08
   7    0.250    5.613    1.918     0.500    12.589   142.615  2.083E+08  3.452E+08
   8    0.350    7.531    1.918     0.500     8.468    95.310  3.386E+07  1.518E+08
   9    0.450    9.449    1.918     0.500     5.348    85.530  2.349E+07  1.254E+08
  10    0.550   11.367    1.918     0.500     3.130    85.530  2.349E+07  1.254E+08
  11    0.650   13.285    1.918     0.500     1.689    75.110  1.519E+07  9.821E+07
  12    0.750   15.203    1.918     0.500     0.547    62.690  8.632E+06  6.831E+07
  13    0.825   16.642    0.959     0.500    -0.164    48.290  3.868E+06  3.634E+07
  14    0.875   17.601    0.959     0.500    -0.571    99.600  3.868E+06  3.634E+07
  15    0.910   18.272    0.384     0.500    -0.859    99.600  3.868E+06  3.634E+07
  16    0.930   18.656    0.384     0.500    -0.970    84.213  1.129E+06  1.622E+07
  17    0.950   19.040    0.384     0.500    -1.056    50.368  1.129E+06  1.622E+07
  18    0.970   19.424    0.384     0.500    -1.210    50.368  1.129E+06  1.622E+07
  19    0.985   19.712    0.192     0.500    -1.325    50.368  1.129E+06  1.622E+07
  20    0.995   19.904    0.192     0.500    -1.402    50.368  1.129E+06  1.622E+07


Interpolated blade 3 properties:

Node  BlFract   RNodes  DRNodes PitchAxis  StrcTwst  BMassDen    FlpStff    EdgStff
 (-)      (-)      (m)      (m)       (-)     (deg)    (kg/m)     (Nm^2)     (Nm^2)
   1    0.002    0.854    0.076     0.500    19.190  3402.177  3.710E+08  5.141E+08
   2    0.010    1.002    0.220     0.500    19.190  2861.621  3.710E+08  5.141E+08
   3    0.021    1.222    0.220     0.500    19.190  1780.509  3.710E+08  5.141E+08
   4    0.039    1.555    0.445     0.500    19.190   149.987  3.710E+08  5.141E+08
   5    0.075    2.257    0.959     0.500    18.666   142.821  2.092E+08  3.461E+08
   6    0.150    3.695    1.918     0.500    16.061   142.821  2.092E+08  3.461E+08
   7    0.250    5.613    1.918     0.500    12.589   142.615  2.083E+08  3.452E+08
   8    0.350    7.531    1.918     0.500     8.468    95.310  3.386E+07  1.518E+08
   9    0.450    9.449    1.918     0.500     5.348    85.530  2.349E+07  1.254E+08
  10    0.550   11.367    1.918     0.500     3.130    85.530  2.349E+07  1.254E+08
  11    0.650   13.285    1.918     0.500     1.689    75.110  1.519E+07  9.821E+07
  12    0.750   15.203    1.918     0.500     0.547    62.690  8.632E+06  6.831E+07
  13    0.825   16.642    0.959     0.500    -0.164    48.290  3.868E+06  3.634E+07
  14    0.875   17.601    0.959     0.500    -0.571    99.600  3.868E+06  3.634E+07
  15    0.910   18.272    0.384     0.500    -0.859    99.600  3.868E+06  3.634E+07
  16    0.930   18.656    0.384     0.500    -0.970    84.213  1.129E+06  1.622E+07
  17    0.950   19.040    0.384     0.500    -1.056    50.368  1.129E+06  1.622E+07
  18    0.970   19.424    0.384     0.500    -1.210    50.368  1.129E+06  1.622E+07
  19    0.985   19.712    0.192     0.500    -1.325    50.368  1.129E+06  1.622E+07
  20    0.995   19.904    0.192     0.500    -1.402    50.368  1.129E+06  1.622E+07


Requested Outputs:


  Col  Parameter  Units
  ---  ---------  -----
   0   Time       (s)       
   1   LSSGagVxa  (rpm)     
   2   LSSGagAxa  (deg/s^2) 
   3   RotSpeed   (rpm)     
   4   HSShftTq   (kN·m)    
   5   LSShftTq   (kN·m)    
   6   GenSpeed   (rpm)     
   7   NcIMUTAys  (m/s^2)   
   8   PtchPMzc1  (deg)     
   9   PtchPMzc2  (deg)     
  10   PtchPMzc3  (deg)     
