
This summary file was generated by TurbSim (v1.06.00, 21-Sep-2012) on 28-Nov-2017 at 16:17:45.


Runtime Options:

   2318573  Random seed #1
    RANLUX  Type of random number generator
         F  Output binary HH turbulence parameters?
         F  Output formatted turbulence parameters?
         F  Output AeroDyn HH files?
         F  Output AeroDyn FF files?
         T  Output BLADED FF files?
         F  Output tower data?
         F  Output formatted FF files?
         T  Output coherent turbulence time step file?
         T  Clockwise rotation when looking downwind?
 0 -  NONE  IEC turbulence models scaled to exact specified standard deviation


Turbine/Model Specifications:

        13  Vertical grid-point matrix dimension
        13  Horizontal grid-point matrix dimension
     0.010  Time step [seconds]
   600.000  Analysis time [seconds]
   600.000  Usable output time [seconds]
    36.600  Hub height [m]
    70.000  Grid height [m]
    70.000  Grid width [m]
     0.000  Vertical flow angle [degrees]
     0.000  Horizontal flow angle [degrees]


Meteorological Boundary Conditions:

    IECKAI  IEC Kaimal spectral model
         1  IEC standard: IEC 61400-1 Ed. 3: 2005
     5.000  Percent turbulence intensity, IEC 61400-1 Ed. 3: 2005
       NTM  IEC Normal Turbulence Model
       N/A  IEC Extreme Turbulence Model (ETM) "c" parameter [m/s]
       PL   Wind profile type
    36.600  Reference height [m]
    18.000  Reference wind speed [m/s]
       N/A  Jet height [m]
     0.125  Power law exponent
     0.030  Surface roughness length [m]


Coherent turbulence time step files are not available for IEC or TIDAL spectral models.

WARNING:   A coherent turbulence time step file cannot be generated with the IECKAI model.



You have requested that the following file(s) be generated:

   TurbSim.wnd (AeroDyn/BLADED full-field wnd file)


Turbulence Simulation Scaling Parameter Summary:

   Turbulence model used                            =  IEC Kaimal
   Turbulence characteristic                        =  User-specified
   IEC standard                                     =  IEC 61400-1 Ed. 3: 2005
   Mean wind speed at hub height                    =   18.000 m/s
   Characteristic value of standard deviation       =    0.900 m/s
   Turbulence scale                                 =   25.620 m
   u-component integral scale                       =  207.522 m
   Coherency scale                                  =  207.522 m
   Characteristic value of hub turbulence intensity =    5.000%
   Gradient Richardson number                       =    0.000

   Wind profile type                                =  Power law
   Power law exponent                               =    0.125
   Mean shear across rotor disk                     =    0.106 (m/s)/m
   Assumed rotor diameter                           =   70.000 m
   Surface roughness length                         =    0.030 m

   Number of time steps in the FFT                  =    60480
   Number of time steps output                      =    60389


Mean Flow Angles:

   Vertical   =   0.0 degrees
   Horizontal =   0.0 degrees

Mean Wind Speed Profile:

   Height    Wind Speed   Horizontal Angle  U-comp (X)   V-comp (Y)   W-comp (Z)
     (m)        (m/s)         (degrees)       (m/s)        (m/s)        (m/s)   
   ------    ----------   ----------------  ----------   ----------   ----------
     71.6       19.57            0.00         19.57         0.00         0.00
     65.8       19.37            0.00         19.37         0.00         0.00
     59.9       19.14            0.00         19.14         0.00         0.00
     54.1       18.90            0.00         18.90         0.00         0.00
     48.3       18.63            0.00         18.63         0.00         0.00
     42.4       18.34            0.00         18.34         0.00         0.00
     36.6       18.00            0.00         18.00         0.00         0.00
     30.8       17.61            0.00         17.61         0.00         0.00
     24.9       17.16            0.00         17.16         0.00         0.00
     19.1       16.59            0.00         16.59         0.00         0.00
     13.3       15.86            0.00         15.86         0.00         0.00
      7.4       14.75            0.00         14.75         0.00         0.00
      1.6       12.17            0.00         12.17         0.00         0.00


Harvested Random Seeds after Generation of the Random Numbers:

    142456860 K1
            0 K2


Hub-Height Simulated Turbulence Statistical Summary:

   Type of Wind        Min (m/s)   Mean (m/s)    Max (m/s)  Sigma (m/s)       TI (%)
   ----------------    ---------   ----------    ---------  -----------       ------
   Longitudinal (u)        15.45        18.00        20.63        0.773        4.292
   Lateral (v)             -2.33         0.00         2.94        0.712        3.956
   Vertical (w)            -1.64         0.00         1.95        0.444        2.467
   U component             15.45        18.00        20.63        0.773        4.292
   V component             -2.33         0.00         2.94        0.712        3.956
   W component             -1.64         0.00         1.95        0.444        2.467
   Horizontal (U&V)        15.46        18.01        20.63        0.773        4.293
   Total                   15.46        18.02        20.65        0.773        4.291

                       Min Reynolds     Mean Reynolds    Max Reynolds    Correlation
   Product             Stress (m/s)^2   Stress (m/s)^2   Stress (m/s)^2  Coefficient
   ----------------    --------------   --------------   --------------  -----------
   u'w'                     -3.081             0.028             3.876         0.081
   u'v'                     -4.329            -0.049             3.834        -0.088
   v'w'                     -2.513             0.002             2.333         0.005


   Friction Velocity (Ustar)  =      0.167 m/s
   Maximum Instantaneous TKE  =      4.434 (m/s)^2
   Maximum Instantaneous CTKE =      2.205 (m/s)^2


Grid Point Variance Summary:

   Y-coord  -35.00  -29.17  -23.33  -17.50  -11.67   -5.83    0.00    5.83   11.67   17.50   23.33   29.17   35.00

   Height   Standard deviation at grid points for the u component:
    71.60    0.822   0.825   0.822   0.856   0.845   0.866   0.871   0.847   0.831   0.836   0.786   0.790   0.790
    65.77    0.855   0.835   0.862   0.857   0.849   0.841   0.819   0.812   0.788   0.792   0.792   0.785   0.813
    59.93    0.865   0.857   0.828   0.827   0.843   0.849   0.815   0.770   0.809   0.820   0.808   0.830   0.830
    54.10    0.857   0.822   0.839   0.842   0.840   0.844   0.792   0.782   0.750   0.822   0.829   0.844   0.841
    48.27    0.835   0.851   0.845   0.808   0.875   0.848   0.818   0.775   0.796   0.812   0.797   0.768   0.810
    42.43    0.827   0.858   0.884   0.867   0.851   0.838   0.786   0.793   0.779   0.757   0.784   0.784   0.811
    36.60    0.850   0.853   0.889   0.875   0.875   0.842   0.773   0.780   0.783   0.785   0.788   0.803   0.782
    30.77    0.852   0.838   0.892   0.862   0.835   0.817   0.775   0.767   0.807   0.789   0.798   0.807   0.793
    24.93    0.817   0.799   0.818   0.829   0.811   0.781   0.816   0.756   0.778   0.799   0.783   0.807   0.806
    19.10    0.818   0.844   0.816   0.802   0.772   0.793   0.805   0.789   0.787   0.776   0.766   0.793   0.808
    13.27    0.845   0.792   0.782   0.796   0.769   0.772   0.766   0.746   0.775   0.790   0.766   0.813   0.801
     7.43    0.849   0.835   0.817   0.844   0.812   0.816   0.789   0.759   0.751   0.781   0.804   0.759   0.780
     1.60    0.881   0.906   0.835   0.832   0.822   0.817   0.840   0.803   0.802   0.779   0.786   0.783   0.831

   Height   Standard deviation at grid points for the v component:
    71.60    0.712   0.712   0.712   0.712   0.712   0.712   0.712   0.712   0.712   0.712   0.712   0.712   0.712
    65.77    0.712   0.712   0.712   0.712   0.712   0.712   0.712   0.712   0.712   0.712   0.712   0.712   0.712
    59.93    0.712   0.712   0.712   0.712   0.712   0.712   0.712   0.712   0.712   0.712   0.712   0.712   0.712
    54.10    0.712   0.712   0.712   0.712   0.712   0.712   0.712   0.712   0.712   0.712   0.712   0.712   0.712
    48.27    0.712   0.712   0.712   0.712   0.712   0.712   0.712   0.712   0.712   0.712   0.712   0.712   0.712
    42.43    0.712   0.712   0.712   0.712   0.712   0.712   0.712   0.712   0.712   0.712   0.712   0.712   0.712
    36.60    0.712   0.712   0.712   0.712   0.712   0.712   0.712   0.712   0.712   0.712   0.712   0.712   0.712
    30.77    0.712   0.712   0.712   0.712   0.712   0.712   0.712   0.712   0.712   0.712   0.712   0.712   0.712
    24.93    0.712   0.712   0.712   0.712   0.712   0.712   0.712   0.712   0.712   0.712   0.712   0.712   0.712
    19.10    0.712   0.712   0.712   0.712   0.712   0.712   0.712   0.712   0.712   0.712   0.712   0.712   0.712
    13.27    0.712   0.712   0.712   0.712   0.712   0.712   0.712   0.712   0.712   0.712   0.712   0.712   0.712
     7.43    0.712   0.712   0.712   0.712   0.712   0.712   0.712   0.712   0.712   0.712   0.712   0.712   0.712
     1.60    0.712   0.712   0.712   0.712   0.712   0.712   0.712   0.712   0.712   0.712   0.712   0.712   0.712

   Height   Standard deviation at grid points for the w component:
    71.60    0.444   0.444   0.444   0.444   0.444   0.444   0.444   0.444   0.444   0.444   0.444   0.444   0.444
    65.77    0.444   0.444   0.444   0.444   0.444   0.444   0.444   0.444   0.444   0.444   0.444   0.444   0.444
    59.93    0.444   0.444   0.444   0.444   0.444   0.444   0.444   0.444   0.444   0.444   0.444   0.444   0.444
    54.10    0.444   0.444   0.444   0.444   0.444   0.444   0.444   0.444   0.444   0.444   0.444   0.444   0.444
    48.27    0.444   0.444   0.444   0.444   0.444   0.444   0.444   0.444   0.444   0.444   0.444   0.444   0.444
    42.43    0.444   0.444   0.444   0.444   0.444   0.444   0.444   0.444   0.444   0.444   0.444   0.444   0.444
    36.60    0.444   0.444   0.444   0.444   0.444   0.444   0.444   0.444   0.444   0.444   0.444   0.444   0.444
    30.77    0.444   0.444   0.444   0.444   0.444   0.444   0.444   0.444   0.444   0.444   0.444   0.444   0.444
    24.93    0.444   0.444   0.444   0.444   0.444   0.444   0.444   0.444   0.444   0.444   0.444   0.444   0.444
    19.10    0.444   0.444   0.444   0.444   0.444   0.444   0.444   0.444   0.444   0.444   0.444   0.444   0.444
    13.27    0.444   0.444   0.444   0.444   0.444   0.444   0.444   0.444   0.444   0.444   0.444   0.444   0.444
     7.43    0.444   0.444   0.444   0.444   0.444   0.444   0.444   0.444   0.444   0.444   0.444   0.444   0.444
     1.60    0.444   0.444   0.444   0.444   0.444   0.444   0.444   0.444   0.444   0.444   0.444   0.444   0.444

   Mean standard deviation across all grid points:
      u component:    0.814 m/s
      v component:    0.712 m/s
      w component:    0.444 m/s


U-component (X) statistics from the hub grid point:

   Mean =  18.0000 m/s
   TI   =   4.2917 %


Normalizing Parameters for Binary Data (approximate statistics):

   UBar  =  18.0000 m/s
   TI(u) =   4.2917 %
   TI(v) =   3.9564 %
   TI(w) =   2.4669 %

   Height Offset =   0.0000 m
   Grid Base     =   1.6000 m

Nyquist frequency of turbulent wind field =        50.000 Hz


Processing complete.  20.389 CPU seconds used.
